7

C         0.0000026718    0.0000006347   -0.2170683281
C        -0.0000023497    0.0000000391   -1.4265235019
H        -0.0000040011   -0.0000013020   -2.4918079409
C        -0.0000033960    0.0000000000    1.2425847736
H         0.9916338986    0.2601992926    1.6323041616
H        -0.2704868842   -0.9888840827    1.6322971256
H        -0.7211607094    0.7286858010    1.6322999265