12
Molecule structure
C           -1.372186183321    -2.010860020902    -0.886820192828
C           -0.173158673000    -1.298344357907    -0.406115006426
N            0.786309071860    -1.384810968974     0.420697487368
C            0.662837700048    -0.111043752576    -0.491918176988
H            1.422532833369    -0.002132476819    -1.261568419806
C            0.271415655367     1.154529325936     0.168585840901
O           -0.638034693748     0.950769479245     1.162558403008
O            0.686902544636     2.258017066085    -0.144478115352
H           -1.457401352716    -2.978238526949    -0.387585199421
H           -1.313874303487    -2.157164437091    -1.968871402470
H           -2.260422649854    -1.409349289546    -0.673788389312
H           -0.815494634684     1.839688017493     1.533442847642

